example/data/d_2383wp_mod_ind_zip.m
% Modified Polish 2383-bus system
% Based on the original Polish 2383-bus system, added induction motors, and ZIP load models
% Original Polish 2383-bus system can be found in Matpower software: https://matpower.org/

%bus data: 2383
Bus.con = [...
   1   220.0000     1.0950    -0.0261    1    1
   2   220.0000     1.0850    -0.0176    1    1
   3   220.0000     1.0750    -0.4574    1    1
   4   220.0000     1.0710    -0.1486    1    1
   5   220.0000     1.0670    -0.3316    1    1
   6   400.0000     1.0240    -0.2412    1    1
   7   220.0000     1.0600    -0.3743    1    1
   8   400.0000     1.0270    -0.1812    1    1
   9   400.0000     1.0360    -0.2945    1    1
  10   220.0000     1.1080    -0.3604    1    1
  11   220.0000     1.0780    -0.1233    1    1
  12   220.0000     1.0670    -0.4174    1    1
  13   220.0000     1.0650    -0.3751    1    1
  14   220.0000     1.0660    -0.0885    1    1
  15   400.0000     1.0090    -0.2674    1    1
  16   220.0000     1.0970    -0.0172    1    1
  17   220.0000     1.0910    -0.0026    1    1
  18   400.0000     1.0340     0.0000    1    1
  19   220.0000     1.0660    -0.3959    1    1
  20   400.0000     1.0370    -0.0338    1    1
  21   220.0000     1.0590    -0.3818    1    1
  22   220.0000     1.0810    -0.2162    1    1
  23   220.0000     1.0620    -0.2912    1    2
  24   220.0000     1.0540    -0.2112    1    2
  25   220.0000     1.0570    -0.1854    1    2
  26   220.0000     1.0510    -0.3407    1    2
  27   220.0000     1.0660    -0.1789    1    2
  28   220.0000     1.0660    -0.1788    1    2
  29   220.0000     1.0970    -0.2677    1    2
  30   220.0000     1.0970    -0.2677    1    2
  31   400.0000     1.0210    -0.1873    1    2
  32   400.0000     1.0210    -0.1880    1    2
  33   220.0000     1.0600    -0.1921    1    2
  34   400.0000     1.0440    -0.1800    1    2
  35   400.0000     1.0440    -0.1802    1    2
  36   400.0000     1.0040    -0.2447    1    2
  37   220.0000     1.0620    -0.3081    1    2
  38   220.0000     1.0620    -0.3081    1    2
  39   400.0000     1.0150    -0.1648    1    2
  40   400.0000     1.0150    -0.1646    1    2
  41   220.0000     1.0610    -0.1483    1    2
  42   220.0000     1.0610    -0.1485    1    2
  43   400.0000     1.0230    -0.1207    1    2
  44   400.0000     1.0230    -0.1209    1    2
  45   220.0000     1.0790    -0.2843    1    2
  46   220.0000     1.0790    -0.2843    1    2
  47   220.0000     1.0600    -0.1901    1    2
  48   220.0000     1.0780    -0.2669    1    2
  49   220.0000     1.0780    -0.2670    1    2
  50   400.0000     1.0310    -0.1487    1    2
  51   400.0000     1.0310    -0.1490    1    2
  52   220.0000     1.0530    -0.2291    1    2
  53   220.0000     1.0550    -0.2270    1    2
  54   220.0000     1.0570    -0.1842    1    2
  55   220.0000     1.0670    -0.2915    1    2
  56   220.0000     1.0800    -0.0895    1    3
  57   220.0000     1.0790    -0.1272    1    3
  58   220.0000     1.0790    -0.1272    1    3
  59   220.0000     1.1050     0.0081    1    3
  60   220.0000     1.1030    -0.0672    1    3
  61   220.0000     1.1080     0.0365    1    3
  62   220.0000     1.1080     0.0366    1    3
  63   220.0000     1.1100     0.0142    1    3
  64   220.0000     1.1090     0.0113    1    3
  65   220.0000     1.1030    -0.0180    1    3
  66   220.0000     1.1000    -0.1507    1    3
  67   400.0000     1.0500    -0.1144    1    3
  68   220.0000     1.1000    -0.1205    1    3
  69   220.0000     1.1070    -0.0146    1    3
  70   220.0000     1.0850    -0.0751    1    3
  71   220.0000     1.0990    -0.0321    1    3
  72   220.0000     1.0990    -0.0321    1    3
  73   220.0000     1.0880    -0.0634    1    3
  74   220.0000     1.0850    -0.0788    1    3
  75   400.0000     1.0320    -0.0292    1    3
  76   400.0000     1.0320    -0.0293    1    3
  77   220.0000     1.0990    -0.0396    1    3
  78   220.0000     1.0970    -0.0868    1    3
  79   220.0000     1.0990    -0.0223    1    3
  80   220.0000     1.0790    -0.1263    1    3
  81   220.0000     1.0790    -0.1263    1    3
  82   220.0000     1.1040     0.0177    1    3
  83   220.0000     1.1090    -0.0143    1    3
  84   220.0000     1.1090    -0.0143    1    3
  85   220.0000     1.1020    -0.0400    1    3
  86   220.0000     1.1020    -0.0400    1    3
  87   220.0000     1.0890    -0.0549    1    3
  88   220.0000     1.0890    -0.0549    1    3
  89   220.0000     1.1000    -0.0216    1    3
  90   220.0000     1.1040    -0.0314    1    3
  91   220.0000     1.1030    -0.0116    1    3
  92   400.0000     1.0240    -0.0961    1    3
  93   220.0000     1.1060    -0.0052    1    3
  94   220.0000     1.1060    -0.0052    1    3
  95   220.0000     1.1080    -0.0079    1    3
  96   220.0000     1.1080    -0.0080    1    3
  97   220.0000     1.0970    -0.0846    1    3
  98   400.0000     1.0230    -0.1318    1    3
  99   400.0000     1.0230    -0.1317    1    3
 100   400.0000     1.0320    -0.0900    1    3
 101   400.0000     1.0320    -0.0899    1    3
 102   220.0000     1.1020    -0.0200    1    3
 103   220.0000     1.1070    -0.0334    1    3
 104   220.0000     1.1070    -0.0333    1    3
 105   400.0000     1.0170    -0.0853    1    3
 106   400.0000     1.0170    -0.0855    1    3
 107   220.0000     1.0840    -0.0801    1    3
 108   220.0000     1.0850    -0.0771    1    3
 109   220.0000     1.1100     0.0491    1    3
 110   220.0000     1.1100     0.0491    1    3
 111   220.0000     1.1070    -0.2503    1    4
 112   220.0000     1.1060    -0.2502    1    4
 113   220.0000     1.0620    -0.4691    1    4
 114   220.0000     1.0750    -0.4597    1    4
 115   400.0000     0.9834    -0.3541    1    4
 116   400.0000     0.9834    -0.3540    1    4
 117   220.0000     1.0730    -0.5238    1    4
 118   220.0000     1.0670    -0.6759    1    4
 119   220.0000     1.0670    -0.6759    1    4
 120   220.0000     1.0510    -0.6491    1    4
 121   220.0000     1.0700    -0.4698    1    4
 122   220.0000     1.0700    -0.4698    1    4
 123   220.0000     1.1100    -0.3386    1    4
 124   220.0000     1.1100    -0.3385    1    4
 125   220.0000     1.1060    -0.6209    1    4
 126   220.0000     1.1060    -0.6207    1    4
 127   400.0000     1.0330    -0.4845    1    4
 128   400.0000     1.0330    -0.4847    1    4
 129   220.0000     1.0450    -0.5686    1    4
 130   220.0000     1.0350    -0.5926    1    4
 131   220.0000     1.0990    -0.4203    1    4
 132   220.0000     1.0990    -0.4206    1    4
 133   400.0000     0.9953    -0.3423    1    4
 134   400.0000     0.9953    -0.3422    1    4
 135   220.0000     1.0670    -0.6746    1    4
 136   220.0000     1.0670    -0.6746    1    4
 137   400.0000     1.0000    -0.2906    1    4
 138   400.0000     1.0000    -0.2906    1    4
 139   220.0000     1.1100    -0.3437    1    4
 140   220.0000     1.1100    -0.3439    1    4
 141   220.0000     1.0490    -0.6163    1    4
 142   220.0000     1.0640    -0.6794    1    4
 143   220.0000     1.0710    -0.5498    1    4
 144   220.0000     1.0710    -0.5498    1    4
 145   400.0000     0.9766    -0.5442    1    4
 146   400.0000     0.9766    -0.5442    1    4
 147   220.0000     1.0440    -0.5341    1    4
 148   220.0000     1.0440    -0.5340    1    4
 149   220.0000     1.0680    -0.5619    1    4
 150   220.0000     1.0650    -0.4547    1    4
 151   220.0000     1.0650    -0.4548    1    4
 152   220.0000     1.0590    -0.3922    1    4
 153   220.0000     1.0590    -0.3922    1    4
 154   220.0000     1.0280    -0.5655    1    4
 155   220.0000     1.0550    -0.4857    1    5
 156   220.0000     1.1100    -0.5271    1    5
 157   400.0000     1.0250    -0.4940    1    5
 158   400.0000     1.0250    -0.4939    1    5
 159   400.0000     1.0280    -0.4390    1    5
 160   400.0000     1.0280    -0.4391    1    5
 161   220.0000     1.0550    -0.5427    1    5
 162   220.0000     1.0550    -0.5427    1    5
 163   220.0000     1.0870    -0.4994    1    5
 164   220.0000     1.0870    -0.4994    1    5
 165   400.0000     1.0020    -0.3946    1    5
 166   220.0000     1.0670    -0.4723    1    5
 167   220.0000     1.0670    -0.4723    1    5
 168   400.0000     1.0300    -0.4694    1    5
 169   400.0000     1.0300    -0.4695    1    5
 170   220.0000     1.0560    -0.4877    1    5
 171   220.0000     1.0560    -0.4876    1    5
 172   220.0000     1.0620    -0.5082    1    5
 173   220.0000     1.0620    -0.5082    1    5
 174   220.0000     1.0600    -0.4695    1    5
 175   220.0000     1.0600    -0.4697    1    5
 176   400.0000     1.0310    -0.4175    1    5
 177   400.0000     1.0310    -0.4174    1    5
 178   220.0000     1.0780    -0.5634    1    5
 179   220.0000     1.0780    -0.5633    1    5
 180   400.0000     1.0090    -0.1340    2    6
 181   220.0000     1.1070    -0.1716    3    6
 182   400.0000     0.9967    -0.3371    5    6
 183   400.0000     1.0500    -0.1963    3    6
 184   220.0000     1.0970    -0.0830    2    6
 185   400.0000     1.0080    -0.1477    2    6
 186   220.0000     1.1090    -0.6232    5    6
 187   110.0000     1.0660    -0.4485    1    1
 188   110.0000     1.0420    -0.5631    1    1
 189   110.0000     0.9972    -0.5151    1    1
 190   110.0000     1.1040    -0.0992    1    1
 191   110.0000     1.0850    -0.1202    1    1
 192   110.0000     1.1200    -0.3854    1    1
 193   110.0000     1.1190    -0.3832    1    1
 194   110.0000     1.1190    -0.3883    1    1
 195   110.0000     1.0830    -0.4666    1    1
 196   110.0000     1.0190    -0.5830    1    1
 197   110.0000     1.0730    -0.2688    1    1
 198   110.0000     1.0750    -0.4694    1    1
 199   110.0000     1.1080    -0.1443    1    1
 200   110.0000     1.0980    -0.4529    1    1
...
];

%SW data: 1
SW.con = [...
  18  100.0000   400.0000     1.1594     0.0000     0.5349    -0.0486     1.0500     0.9500     0.8753     1.0000    1    1
];

%PV data: 326
PV.con = [...
  10   100.0000   220.0000     4.0001       1.2363     1.2000     0.0000     1.1100     0.9500     1.0000    1
  16   100.0000   220.0000     7.1996       1.2132     4.3998    -0.4000     1.1100     0.9500     1.0000    1
  17   100.0000   220.0000    10.8000       1.2059     6.5994    -0.6000     1.1100     0.9500     1.0000    1
  29   100.0000   220.0000     0.7001       1.2221     2.4002     0.0000     1.1100     0.9500     1.0000    1
  30   100.0000   220.0000     0.7001       1.2221     2.4002     0.0000     1.1100     0.9500     1.0000    1
  31   100.0000   400.0000    10.0002       1.1514     3.4999     0.0000     1.0500     0.9500     1.0000    1
  41   100.0000   220.0000     2.0001       1.1907     1.1999     0.0000     1.1100     0.9500     1.0000    1
  42   100.0000   220.0000     0.7001       1.1907     1.1999     0.0000     1.1100     0.9500     1.0000    1
  43   100.0000   400.0000     4.0999       1.1494     2.3999     0.0000     1.0500     0.9500     1.0000    1
  44   100.0000   400.0000     4.0999       1.1495     2.3999     0.0000     1.0500     0.9500     1.0000    1
  45   100.0000   220.0000     0.4220       1.2082     0.2100     0.0000     1.1100     0.9500     1.0000    1
  63   100.0000   220.0000     6.4990       1.2033     3.0201     0.0000     1.1100     0.9500     1.0000    1
  64   100.0000   220.0000     4.5001       1.2023     3.1098     0.0200     1.1100     0.9500     1.0000    1
  67   100.0000   400.0000     7.5004       1.1529     4.4902     0.0000     1.0500     0.9500     1.0000    1
  83   100.0000   220.0000     2.2499       1.1985     1.9001    -0.8900     1.1100     0.9500     1.0000    1
  84   100.0000   220.0000     2.2500       1.1985     1.9001    -0.8900     1.1100     0.9500     1.0000    1
  85   100.0000   220.0000     1.2001       1.1990     1.2499    -0.4999     1.1100     0.9500     1.0000    1
  86   100.0000   220.0000     1.2001       1.1990     1.2499    -0.4999     1.1100     0.9500     1.0000    1
  93   100.0000   220.0000     1.2000       1.2023     0.9000     0.0500     1.1100     0.9500     1.0000    1
  95   100.0000   220.0000     1.1004       1.2038     0.6800     0.2700     1.1100     0.9500     1.0000    1
  97   100.0000   220.0000     0.8760       1.1892     0.6800     0.2700     1.1100     0.9500     1.0000    1
 103   100.0000   220.0000     1.6001       1.2028     1.7700    -0.8200     1.1100     0.9500     1.0000    1
 104   100.0000   220.0000     2.2501       1.2027     3.7901    -1.7699     1.1100     0.9500     1.0000    1
 105   100.0000   400.0000     4.3001       1.1304     3.5301    -1.6501     1.0500     0.9500     1.0000    1
 109   100.0000   220.0000     2.4999       1.1969     0.6501     0.0000     1.1100     0.9500     1.0000    1
 110   100.0000   220.0000     2.5001       1.1962     0.6499     0.0000     1.1100     0.9500     1.0000    1
 111   100.0000   220.0000     3.6002       1.2181     2.6999     0.0000     1.1100     0.9500     1.0000    1
 123   100.0000   220.0000     0.2000       1.2250     0.4000     0.0000     1.1100     0.9500     1.0000    1
 124   100.0000   220.0000     1.2500       1.2250     0.9000     0.0000     1.1100     0.9500     1.0000    1
 125   100.0000   220.0000     0.6998       1.2262     3.6003     0.0000     1.1100     0.9500     1.0000    1
 127   100.0000   400.0000     6.9012       1.1592     3.6002     0.0000     1.0500     0.9500     1.0000    1
 131   100.0000   220.0000     6.4540       1.2161     3.5997     0.0000     1.1100     0.9500     1.0000    1
 132   100.0000   220.0000     0.7000       1.2161     4.7997     0.0000     1.1100     0.9500     1.0000    1
 139   100.0000   220.0000     4.0869       1.2255     3.6000     0.0000     1.1100     0.9500     1.0000    1
 140   100.0000   220.0000     1.9999       1.2255     1.2000     0.0000     1.1100     0.9500     1.0000    1
 176   100.0000   400.0000     5.9985       1.1710     2.1999    -1.2001     1.0500     0.9500     1.0000    1
 177   100.0000   400.0000     1.9999       1.1710     2.1999    -1.2001     1.0500     0.9500     1.0000    1
 180   100.0000   400.0000     0.0000       1.1237   999.9960  -999.9960     1.0500     0.9500     1.0000    1
 181   100.0000   220.0000     1.7499       1.2345  1000.0200 -1000.0200     1.1100     0.9500     1.0000    1
 182   100.0000   400.0000     3.0765       1.1029  1000.4169 -1000.4169     1.0500     0.9500     1.0000    1
 184   100.0000   220.0000     0.0000       1.1850   999.8541  -999.8541     1.1100     0.9500     1.0000    1
 185   100.0000   400.0000     0.0000       1.1234   999.7800  -999.7800     1.0500     0.9500     1.0000    1
 186   100.0000   220.0000     0.0000       1.2284   999.8751  -999.8751     1.1100     0.9500     1.0000    1
 192   100.0000   110.0000     0.9500       1.2593     0.5000     0.0000     1.1200     0.9500     1.0000    1
 196   100.0000   110.0000     0.0090       1.1601     0.0100     0.0000     1.1200     0.9500     1.0000    1
 198   100.0000   110.0000     0.0080       1.2084     0.0100     0.0000     1.1200     0.9500     1.0000    1
 205   100.0000   110.0000     0.1500       1.2375     0.1000     0.0000     1.1200     0.9500     1.0000    1
 213   100.0000   110.0000     0.1100       1.2057     0.0800     0.0000     1.1200     0.9500     1.0000    1
 264   100.0000   110.0000     0.0250       1.2065     0.0200     0.0000     1.1200     0.9500     1.0000    1
 269   100.0000   110.0000     0.0600       1.2489     0.0500     0.0000     1.1200     0.9500     1.0000    1
 277   100.0000   110.0000     0.7000       1.2348     0.4200     0.0000     1.1200     0.9500     1.0000    1
 278   100.0000   110.0000     0.6000       1.2352     0.4000     0.0000     1.1200     0.9500     1.0000    1
 279   100.0000   110.0000     0.6000       1.2376     0.4000     0.0000     1.1200     0.9500     1.0000    1
 281   100.0000   110.0000     1.2000       1.2380     0.9000     0.0000     1.1200     0.9500     1.0000    1
 282   100.0000   110.0000     0.4000       1.2407     0.4000     0.0000     1.1200     0.9500     1.0000    1
 289   100.0000   110.0000     0.0250       1.2354     0.0300     0.0000     1.1200     0.9500     1.0000    1
 294   100.0000   110.0000     0.0200       1.2405     0.0100     0.0000     1.1200     0.9500     1.0000    1
 314   100.0000   110.0000     0.0150       1.2214     0.0100     0.0000     1.1200     0.9500     1.0000    1
 328   100.0000   110.0000     0.4400       1.2507     0.2100     0.0000     1.1200     0.9500     1.0000    1
 329   100.0000   110.0000     0.4400       1.2222     0.2100     0.0000     1.1200     0.9500     1.0000    1
 330   100.0000   110.0000     0.4400       1.2629     0.2100     0.0000     1.1200     0.9500     1.0000    1
 331   100.0000   110.0000     0.4300       1.2465     0.2100     0.0000     1.1200     0.9500     1.0000    1
 334   100.0000   110.0000     0.0150       1.2299     0.0100     0.0000     1.1200     0.9500     1.0000    1
 346   100.0000   110.0000     1.9998       1.2487     1.2001     0.0000     1.1200     0.9500     1.0000    1
 347   100.0000   110.0000     0.1000       1.2552     0.1500     0.0000     1.1200     0.9500     1.0000    1
 359   100.0000   110.0000     0.0150       1.2278     0.0100     0.0000     1.1200     0.9500     1.0000    1
 365   100.0000   110.0000     0.0510       1.2275     0.0300     0.0000     1.1200     0.9500     1.0000    1
 382   100.0000   110.0000     0.0800       1.1936     0.0500     0.0000     1.1200     0.9500     1.0000    1
 383   100.0000   110.0000     0.0800       1.1906     0.0500     0.0000     1.1200     0.9500     1.0000    1
 385   100.0000   110.0000     0.0600       1.1955     0.0400     0.0000     1.1200     0.9500     1.0000    1
 390   100.0000   110.0000     0.0450       1.2051     0.0300     0.0000     1.1200     0.9500     1.0000    1
 395   100.0000   110.0000     0.1000       1.2464     0.0800     0.0000     1.1200     0.9500     1.0000    1
 404   100.0000   110.0000     0.0300       1.1981     0.0300     0.0000     1.1200     0.9500     1.0000    1
 426   100.0000   110.0000     0.0320       1.2032     0.0200     0.0000     1.1200     0.9500     1.0000    1
 444   100.0000   110.0000     0.0100       1.2322     0.0100     0.0000     1.1200     0.9500     1.0000    1
 451   100.0000   110.0000     0.0450       1.2216     0.0300     0.0000     1.1200     0.9500     1.0000    1
 482   100.0000   110.0000     0.0100       1.2290     0.0100     0.0000     1.1200     0.9500     1.0000    1
 492   100.0000   110.0000     0.0200       1.2281     0.0100     0.0000     1.1200     0.9500     1.0000    1
 493   100.0000   110.0000     2.3399       1.2439     1.2999     0.0000     1.1200     0.9500     1.0000    1
 494   100.0000   110.0000     2.3399       1.2114     1.2999     0.0000     1.1200     0.9500     1.0000    1
 514   100.0000   110.0000     1.1500       1.2175     0.9000     0.0000     1.1200     0.9500     1.0000    1
 515   100.0000   110.0000     1.1500       1.1947     0.9000     0.0000     1.1200     0.9500     1.0000    1
 525   100.0000   110.0000     0.0600       1.2186     0.0400     0.0000     1.1200     0.9500     1.0000    1
 536   100.0000   110.0000     0.0600       1.2016     0.0600     0.0000     1.1200     0.9500     1.0000    1
 537   100.0000   110.0000     0.0350       1.2037     0.0300     0.0000     1.1200     0.9500     1.0000    1
 556   100.0000   110.0000     0.0270       1.1966     0.0100     0.0000     1.1200     0.9500     1.0000    1
 580   100.0000   110.0000     0.0160       1.2220     0.0100     0.0000     1.1200     0.9500     1.0000    1
 584   100.0000   110.0000     0.0270       1.1927     0.0200     0.0000     1.1200     0.9500     1.0000    1
 585   100.0000   110.0000     0.0400       1.1928     0.0200     0.0000     1.1200     0.9500     1.0000    1
 607   100.0000   110.0000     0.0080       1.1915     0.0000     0.0000     1.1200     0.9500     1.0000    1
 612   100.0000   110.0000     1.5296       1.2351     1.2001     0.0000     1.1200     0.9500     1.0000    1
 613   100.0000   110.0000     2.0001       1.2351     1.2001     0.0000     1.1200     0.9500     1.0000    1
 615   100.0000   110.0000     0.0140       1.2085     0.0100     0.0000     1.1200     0.9500     1.0000    1
 623   100.0000   110.0000     0.0760       1.1990     0.0500     0.0000     1.1200     0.9500     1.0000    1
 639   100.0000   110.0000     0.0960       1.2197     0.0400     0.0000     1.1200     0.9500     1.0000    1
 651   100.0000   110.0000     0.0470       1.2126     0.0200     0.0000     1.1200     0.9500     1.0000    1
 654   100.0000   110.0000     0.0140       1.2019     0.0100     0.0000     1.1200     0.9500     1.0000    1
 664   100.0000   110.0000     0.0620       1.1869     0.0600     0.0000     1.1200     0.9500     1.0000    1
 670   100.0000   110.0000     0.0270       1.1885     0.0200     0.0000     1.1200     0.9500     1.0000    1
 674   100.0000   110.0000     0.0100       1.1996     0.0000     0.0000     1.1200     0.9500     1.0000    1
 688   100.0000   110.0000     0.7001       1.1949     1.2001     0.0000     1.1200     0.9500     1.0000    1
 692   100.0000   110.0000     0.0140       1.2194     0.0100     0.0000     1.1200     0.9500     1.0000    1
 699   100.0000   110.0000     0.0380       1.1940     0.0200     0.0000     1.1200     0.9500     1.0000    1
 712   100.0000   110.0000     0.0120       1.2020     0.0100     0.0000     1.1200     0.9500     1.0000    1
 730   100.0000   110.0000     0.0690       1.2113     0.0300     0.0000     1.1200     0.9500     1.0000    1
 732   100.0000   110.0000     0.0110       1.1951     0.0100     0.0000     1.1200     0.9500     1.0000    1
 735   100.0000   110.0000     0.0410       1.2159     0.0200     0.0000     1.1200     0.9500     1.0000    1
 740   100.0000   110.0000     0.0400       1.2129     0.0100     0.0000     1.1200     0.9500     1.0000    1
 744   100.0000   110.0000     1.3400       1.2164     0.6000     0.0000     1.1200     0.9500     1.0000    1
 754   100.0000   110.0000     0.7997       1.2137     0.3000     0.0000     1.1200     0.9500     1.0000    1
 755   100.0000   110.0000     0.8500       1.1951     0.8000     0.0000     1.1200     0.9500     1.0000    1
 760   100.0000   110.0000     0.0310       1.1981     0.0200     0.0000     1.1200     0.9500     1.0000    1
 766   100.0000   110.0000     0.0210       1.1964     0.0100     0.0000     1.1200     0.9500     1.0000    1
 784   100.0000   110.0000     0.0070       1.2047     0.0000     0.0000     1.1200     0.9500     1.0000    1
 790   100.0000   110.0000     0.4980       1.2042     0.3500     0.3500     1.1200     0.9500     1.0000    1
 795   100.0000   110.0000     0.0189       1.1821     0.0100     0.0100     1.1200     0.9500     1.0000    1
 798   100.0000   110.0000     0.0299       1.1953     0.0300     0.0300     1.1200     0.9500     1.0000    1
 814   100.0000   110.0000     0.4492       1.1937     0.4200     0.0000     1.1200     0.9500     1.0000    1
 834   100.0000   110.0000     0.5500       1.2097     0.8299     0.0000     1.1200     0.9500     1.0000    1
 878   100.0000   110.0000     0.0299       1.1981     0.0000     0.0000     1.1200     0.9500     1.0000    1
 884   100.0000   110.0000     0.0249       1.1926     0.0000     0.0000     1.1200     0.9500     1.0000    1
 892   100.0000   110.0000     0.3187       1.2007     0.4199     0.0600     1.1200     0.9500     1.0000    1
 895   100.0000   110.0000     0.0896       1.1958     0.0700     0.0700     1.1200     0.9500     1.0000    1
 901   100.0000   110.0000     0.0368       1.1851     0.0200     0.0200     1.1200     0.9500     1.0000    1
 910   100.0000   110.0000     0.0458       1.1931     0.0300     0.0300     1.1200     0.9500     1.0000    1
 911   100.0000   110.0000     3.7001       1.2220     2.2402     0.0000     1.1200     0.9500     1.0000    1
 912   100.0000   110.0000     3.7001       1.2189     2.2402     0.0000     1.1200     0.9500     1.0000    1
 914   100.0000   110.0000     0.1593       1.1943     0.1000     0.1000     1.1200     0.9500     1.0000    1
 917   100.0000   110.0000     0.0209       1.2002     0.0000     0.0000     1.1200     0.9500     1.0000    1
 919   100.0000   110.0000     0.2191       1.1893     0.1200     0.1200     1.1200     0.9500     1.0000    1
 920   100.0000   110.0000     0.0199       1.1888     0.0000     0.0000     1.1200     0.9500     1.0000    1
 929   100.0000   110.0000     0.6373       1.1941     0.5000     0.2900     1.1200     0.9500     1.0000    1
 959   100.0000   110.0000     0.0249       1.1688     0.0100     0.0100     1.1200     0.9500     1.0000    1
 968   100.0000   110.0000     0.0070       1.1920     0.0000     0.0000     1.1200     0.9500     1.0000    1
 993   100.0000   110.0000     0.0398       1.1780     0.0100     0.0100     1.1200     0.9500     1.0000    1
 994   100.0000   110.0000     0.0199       1.1780     0.0100     0.0100     1.1200     0.9500     1.0000    1
 995   100.0000   110.0000     0.2000       1.1961     0.3800     0.0000     1.1200     0.9500     1.0000    1
 996   100.0000   110.0000     0.2000       1.1977     0.3800     0.0000     1.1200     0.9500     1.0000    1
 997   100.0000   110.0000     0.2000       1.1954     0.3800     0.0000     1.1200     0.9500     1.0000    1
1004   100.0000   110.0000     0.0428       1.2318     0.0300     0.0300     1.1200     0.9500     1.0000    1
1024   100.0000   110.0000     0.0010       1.2052     0.0000     0.0000     1.1200     0.9500     1.0000    1
1027   100.0000   110.0000     0.2490       1.1990     0.1300     0.1300     1.1200     0.9500     1.0000    1
1028   100.0000   110.0000     0.0299       1.1991     0.0300     0.0300     1.1200     0.9500     1.0000    1
1029   100.0000   110.0000     0.2490       1.2015     0.1400     0.1400     1.1200     0.9500     1.0000    1
1053   100.0000   110.0000     0.5976       1.1932     0.5300     0.0000     1.1200     0.9500     1.0000    1
1054   100.0000   110.0000     0.2988       1.1848     0.3100     0.0000     1.1200     0.9500     1.0000    1
1105   100.0000   110.0000     0.0797       1.2066     0.1000     0.1000     1.1200     0.9500     1.0000    1
1106   100.0000   110.0000     0.2291       1.2126     0.1300     0.1300     1.1200     0.9500     1.0000    1
1107   100.0000   110.0000     0.1056       1.1837     0.0300     0.0300     1.1200     0.9500     1.0000    1
1138   100.0000   110.0000     0.4482       1.1925     0.4100     0.0000     1.1200     0.9500     1.0000    1
1140   100.0000   110.0000     2.3000       1.1997     1.9900    -0.8699     1.1200     0.9500     1.0000    1
1141   100.0000   110.0000     0.9493       1.1965     1.9001    -0.8900     1.1200     0.9500     1.0000    1
1175   100.0000   110.0000     0.3784       1.2040     0.2000     0.2000     1.1200     0.9500     1.0000    1
1182   100.0000   110.0000     0.4001       1.2079     1.2499    -0.4999     1.1200     0.9500     1.0000    1
1183   100.0000   110.0000     1.2001       1.1942     1.2499    -0.4999     1.1200     0.9500     1.0000    1
1184   100.0000   110.0000     1.2001       1.1953     1.2499    -0.4999     1.1200     0.9500     1.0000    1
1191   100.0000   110.0000     1.0656       1.1973     1.2902    -0.4700     1.1200     0.9500     1.0000    1
1192   100.0000   110.0000     2.5006       1.1971     1.2497    -0.5000     1.1200     0.9500     1.0000    1
1201   100.0000   110.0000     0.9959       1.2022     0.9000     0.0000     1.1200     0.9500     1.0000    1
1202   100.0000   110.0000     0.9959       1.2022     0.9000     0.0000     1.1200     0.9500     1.0000    1
1203   100.0000   110.0000     0.9959       1.2000     0.9000     0.0000     1.1200     0.9500     1.0000    1
1232   100.0000   110.0000     0.5179       1.1964     0.4100     0.0000     1.1200     0.9500     1.0000    1
1233   100.0000   110.0000     0.1494       1.1978     0.4100     0.0000     1.1200     0.9500     1.0000    1
1244   100.0000   110.0000     0.1892       1.1878     0.2000     0.2000     1.1200     0.9500     1.0000    1
1247   100.0000   110.0000     0.1593       1.1912     0.1200     0.1200     1.1200     0.9500     1.0000    1
1250   100.0000   110.0000     1.9718       1.1938     1.5099     0.0000     1.1200     0.9500     1.0000    1
1268   100.0000   110.0000     0.0050       1.1696     0.0000     0.0000     1.1200     0.9500     1.0000    1
1316   100.0000   110.0000     0.0100       1.2049     0.0000     0.0000     1.1200     0.9500     1.0000    1
1325   100.0000   110.0000     0.0139       1.1994     0.0000     0.0000     1.1200     0.9500     1.0000    1
1349   100.0000   110.0000     0.0149       1.1550     0.0000     0.0000     1.1200     0.9500     1.0000    1
1356   100.0000   110.0000     0.0100       1.1858     0.0200     0.0200     1.1200     0.9500     1.0000    1
1359   100.0000   110.0000     0.0080       1.1868     0.0100     0.0100     1.1200     0.9500     1.0000    1
1393   100.0000   110.0000     0.1275       1.1867     0.1100     0.0000     1.1200     0.9500     1.0000    1
1403   100.0000   110.0000     0.0428       1.1930     0.0100     0.0100     1.1200     0.9500     1.0000    1
1416   100.0000   110.0000     3.7097       1.2003     1.8000     0.1000     1.1200     0.9500     1.0000    1
1417   100.0000   110.0000     1.2000       1.2082     1.2000     0.0500     1.1200     0.9500     1.0000    1
1418   100.0000   110.0000     0.2000       1.1962     0.9000     0.0500     1.1200     0.9500     1.0000    1
1426   100.0000   110.0000     4.9502       1.2108     0.6800     0.2700     1.1200     0.9500     1.0000    1
1429   100.0000   110.0000     0.0020       1.1638     0.0000     0.0000     1.1200     0.9500     1.0000    1
1469   100.0000   110.0000     0.0060       1.1909     0.0000     0.0000     1.1200     0.9500     1.0000    1
1475   100.0000   110.0000     0.0209       1.1809     0.0200     0.0200     1.1200     0.9500     1.0000    1
1504   100.0000   110.0000     0.3117       1.2008     0.0200     0.0200     1.1200     0.9500     1.0000    1
1505   100.0000   110.0000     0.4880       1.2234     0.0400     0.0400     1.1200     0.9500     1.0000    1
1514   100.0000   110.0000     0.0229       1.1957     0.0100     0.0100     1.1200     0.9500     1.0000    1
1534   100.0000   110.0000     0.0030       1.1968     0.0000     0.0000     1.1200     0.9500     1.0000    1
1536   100.0000   110.0000     1.6001       1.1962     1.9001    -0.8900     1.1200     0.9500     1.0000    1
1537   100.0000   110.0000     2.2501       1.2162     2.0301    -0.9499     1.1200     0.9500     1.0000    1
1538   100.0000   110.0000     2.1499       1.1987     1.9000    -0.8899     1.1200     0.9500     1.0000    1
1542   100.0000   110.0000     0.0896       1.2224     0.0300     0.0300     1.1200     0.9500     1.0000    1
1543   100.0000   110.0000     0.0120       1.1911     0.0000     0.0000     1.1200     0.9500     1.0000    1
1550   100.0000   110.0000     0.0179       1.1944     0.0100     0.0100     1.1200     0.9500     1.0000    1
1566   100.0000   110.0000     0.5477       1.1958     0.4700     0.2000     1.1200     0.9500     1.0000    1
1587   100.0000   110.0000     0.6374       1.1887     0.2700     0.2700     1.1200     0.9500     1.0000    1
1600   100.0000   110.0000     0.1743       1.1774     0.0300     0.0300     1.1200     0.9500     1.0000    1
1602   100.0000   110.0000     1.2000       1.2316     0.9000     0.0000     1.1200     0.9500     1.0000    1
1603   100.0000   110.0000     1.2000       1.2245     0.9000     0.0000     1.1200     0.9500     1.0000    1
1609   100.0000   110.0000     0.0030       1.2193     0.0000     0.0000     1.1200     0.9500     1.0000    1
1617   100.0000   110.0000     0.0200       1.2297     0.0000     0.0000     1.1200     0.9500     1.0000    1
1620   100.0000   110.0000     0.0160       1.2443     0.0000     0.0000     1.1200     0.9500     1.0000    1
1627   100.0000   110.0000     0.0160       1.2009     0.0000     0.0000     1.1200     0.9500     1.0000    1
...
];

%PQ data: 2379
PQ.con = [...
  10   100.0000   220.0000     0.1223     0.0900     1.1100     0.9500    0    1
  16   100.0000   220.0000     0.5488     1.0000     1.1100     0.9500    0    1
  17   100.0000   220.0000     0.7700     1.5000     1.1100     0.9500    0    1
  18   100.0000   400.0000     1.5300     3.5000     1.0500     0.9500    0    1
  29   100.0000   220.0000     0.2598     0.6000     1.1100     0.9500    0    1
  30   100.0000   220.0000     0.2598     0.6000     1.1100     0.9500    0    1
  31   100.0000   400.0000     0.2098     0.5000     1.0500     0.9500    0    1
  41   100.0000   220.0000     0.1199     0.3000     1.1100     0.9500    0    1
  42   100.0000   220.0000     0.1199     0.3000     1.1100     0.9500    0    1
  43   100.0000   400.0000     0.2398     0.6000     1.0500     0.9500    0    1
  44   100.0000   400.0000     0.2398     0.6000     1.0500     0.9500    0    1
  45   100.0000   220.0000     1.5980     0.7500     1.1100     0.9500    0    1
  57   100.0000   220.0000     0.2298     0.1096     1.1100     0.9500    0    1
  58   100.0000   220.0000     0.2198     0.0579     1.1100     0.9500    0    1
  63   100.0000   220.0000     0.3737     0.5269     1.1100     0.9500    0    1
  64   100.0000   220.0000     0.3537     0.5532     1.1100     0.9500    0    1
  65   100.0000   220.0000     0.1339     0.0202     1.1100     0.9500    0    1
  67   100.0000   400.0000     0.6040     0.9210     1.0500     0.9500    0    1
  83   100.0000   220.0000     0.1599     0.2297     1.1100     0.9500    0    1
  84   100.0000   220.0000     0.1579     0.2227     1.1100     0.9500    0    1
  85   100.0000   220.0000     0.0999     0.1701     1.1100     0.9500    0    1
  86   100.0000   220.0000     0.0999     0.1666     1.1100     0.9500    0    1
  87   100.0000   220.0000     0.1109     0.1622     1.1100     0.9500    0    1
  93   100.0000   220.0000     0.0999     0.1639     1.1100     0.9500    0    1
  95   100.0000   220.0000     0.0689     0.0815     1.1100     0.9500    0    1
  97   100.0000   220.0000     0.0869     0.0526     1.1100     0.9500    0    1
 103   100.0000   220.0000     0.1639     0.2283     1.1100     0.9500    0    1
 104   100.0000   220.0000     0.3368     0.4611     1.1100     0.9500    0    1
 105   100.0000   400.0000     0.3378     2.6295     1.0500     0.9500    0    1
 109   100.0000   220.0000     0.0100     0.2236     1.1100     0.9500    0    1
 110   100.0000   220.0000     0.0100     0.2218     1.1100     0.9500    0    1
 111   100.0000   220.0000     0.2649     0.1800     1.1100     0.9500    0    1
 123   100.0000   220.0000     0.0550     0.0700     1.1100     0.9500    0    1
 124   100.0000   220.0000     0.0879     0.1700     1.1100     0.9500    0    1
 125   100.0000   220.0000     0.3570     0.1830     1.1100     0.9500    0    1
 126   100.0000   220.0000     0.2528     0.1590     1.1100     0.9500    0    1
 127   100.0000   400.0000     0.2571     0.1530     1.0500     0.9500    0    1
 131   100.0000   220.0000     0.6761     0.6892     1.1100     0.9500    0    1
 132   100.0000   220.0000     0.3300     0.4500     1.1100     0.9500    0    1
 139   100.0000   220.0000     0.3320     0.2260     1.1100     0.9500    0    1
 140   100.0000   220.0000     0.2923     0.1960     1.1100     0.9500    0    1
 176   100.0000   400.0000     0.0000     0.4000     1.0500     0.9500    0    1
 177   100.0000   400.0000     0.0000     0.4000     1.0500     0.9500    0    1
 180   100.0000   400.0000     3.3990     0.4960     1.0500     0.9500    0    1
 183   100.0000   400.0000     1.5000     0.0000     1.0500     0.9500    0    1
 184   100.0000   220.0000     3.1730     0.5030     1.1100     0.9500    0    1
 185   100.0000   400.0000     3.6240     0.3670     1.0500     0.9500    0    1
 186   100.0000   220.0000     0.3333     0.0100     1.1100     0.9500    0    1
 187   100.0000   110.0000     0.0712     0.0150     1.1200     0.9500    0    1
 188   100.0000   110.0000     0.0763     0.0100     1.1200     0.9500    0    1
 189   100.0000   110.0000     0.0977     0.0870     1.1200     0.9500    0    1
 190   100.0000   110.0000     0.0612     0.0150     1.1200     0.9500    0    1
 191   100.0000   110.0000     0.0612     0.0160     1.1200     0.9500    0    1
 192   100.0000   110.0000     0.3056     0.1200     1.1200     0.9500    0    1
 193   100.0000   110.0000     0.1528     0.0300     1.1200     0.9500    0    1
 195   100.0000   110.0000     0.0814     0.0200     1.1200     0.9500    0    1
 196   100.0000   110.0000     0.0692     0.0150     1.1200     0.9500    0    1
 197   100.0000   110.0000     0.0692     0.0150     1.1200     0.9500    0    1
 198   100.0000   110.0000     0.1232     0.0170     1.1200     0.9500    0    1
 199   100.0000   110.0000     0.0143     0.0050     1.1200     0.9500    0    1
 200   100.0000   110.0000     0.0108     0.0050     1.1200     0.9500    0    1
 201   100.0000   110.0000     0.0561     0.0050     1.1200     0.9500    0    1
 202   100.0000   110.0000     0.1834     0.0200     1.1200     0.9500    0    1
 203   100.0000   110.0000     0.1110     0.0160     1.1200     0.9500    0    1
 205   100.0000   110.0000     0.0692     0.0200     1.1200     0.9500    0    1
 206   100.0000   110.0000     0.1120     0.0100     1.1200     0.9500    0    1
 207   100.0000   110.0000     0.0732     0.0160     1.1200     0.9500    0    1
 208   100.0000   110.0000    -0.0732    -0.0450     1.1200     0.9500    0    1
 209   100.0000   110.0000     0.0936     0.0080     1.1200     0.9500    0    1
 210   100.0000   110.0000     0.1518     0.0440     1.1200     0.9500    0    1
 211   100.0000   110.0000     0.0875     0.0020     1.1200     0.9500    0    1
 212   100.0000   110.0000     0.1018     0.0150     1.1200     0.9500    0    1
 213   100.0000   110.0000    -0.0204    -0.0100     1.1200     0.9500    0    1
 214   100.0000   110.0000     0.1098    -0.0007     1.1200     0.9500    0    1
 215   100.0000   110.0000     0.0692     0.0200     1.1200     0.9500    0    1
 216   100.0000   110.0000     0.0885     0.0050     1.1200     0.9500    0    1
 217   100.0000   110.0000     0.0194     0.0040     1.1200     0.9500    0    1
 218   100.0000   110.0000     0.1222     0.0150     1.1200     0.9500    0    1
 219   100.0000   110.0000     0.0255     0.0050     1.1200     0.9500    0    1
 220   100.0000   110.0000     0.0255     0.0050     1.1200     0.9500    0    1
 221   100.0000   110.0000     0.0387     0.0039     1.1200     0.9500    0    1
 222   100.0000   110.0000     0.0653     0.0040     1.1200     0.9500    0    1
 223   100.0000   110.0000     0.1865     0.0400     1.1200     0.9500    0    1
 224   100.0000   110.0000     0.1986     0.0250     1.1200     0.9500    0    1
 225   100.0000   110.0000     0.1730     0.0200     1.1200     0.9500    0    1
 226   100.0000   110.0000     0.2444     0.0150     1.1200     0.9500    0    1
 227   100.0000   110.0000     0.0561     0.0100     1.1200     0.9500    0    1
 228   100.0000   110.0000     0.1140     0.0110     1.1200     0.9500    0    1
 229   100.0000   110.0000     0.1100     0.0270     1.1200     0.9500    0    1
 230   100.0000   110.0000     0.0763     0.0100     1.1200     0.9500    0    1
 231   100.0000   110.0000     0.0794     0.0110     1.1200     0.9500    0    1
 232   100.0000   110.0000     0.0719     0.0069     1.1200     0.9500    0    1
 233   100.0000   110.0000     0.0184     0.0080     1.1200     0.9500    0    1
 234   100.0000   110.0000     0.3346     0.2800     1.1200     0.9500    0    1
 235   100.0000   110.0000     0.3376     0.2800     1.1200     0.9500    0    1
 236   100.0000   110.0000     0.0102     0.0050     1.1200     0.9500    0    1
 237   100.0000   110.0000     0.1395     0.0170     1.1200     0.9500    0    1
 238   100.0000   110.0000     0.0998     0.0100     1.1200     0.9500    0    1
 239   100.0000   110.0000     0.1528     0.0150     1.1200     0.9500    0    1
 240   100.0000   110.0000     0.1120     0.0150     1.1200     0.9500    0    1
 241   100.0000   110.0000     0.1018     0.0300     1.1200     0.9500    0    1
 242   100.0000   110.0000     0.0122     0.0010     1.1200     0.9500    0    1
 244   100.0000   110.0000     0.0102     0.0000     1.1200     0.9500    0    1
 245   100.0000   110.0000     0.1212     0.0540     1.1200     0.9500    0    1
 246   100.0000   110.0000    -0.0814    -0.0360     1.1200     0.9500    0    1
 247   100.0000   110.0000     0.1120     0.0150     1.1200     0.9500    0    1
 248   100.0000   110.0000     0.0306     0.0050     1.1200     0.9500    0    1
 249   100.0000   110.0000     0.0916     0.0000     1.1200     0.9500    0    1
 250   100.0000   110.0000     0.2771     0.0300     1.1200     0.9500    0    1
 251   100.0000   110.0000     0.2138     0.0400     1.1200     0.9500    0    1
 252   100.0000   110.0000     0.2080     0.0389     1.1200     0.9500    0    1
 253   100.0000   110.0000     0.1487     0.0430     1.1200     0.9500    0    1
 254   100.0000   110.0000     0.1986     0.0350     1.1200     0.9500    0    1
 255   100.0000   110.0000     0.1018     0.0100     1.1200     0.9500    0    1
 256   100.0000   110.0000     0.0561     0.0000     1.1200     0.9500    0    1
 257   100.0000   110.0000     0.0712     0.0020     1.1200     0.9500    0    1
 258   100.0000   110.0000     0.0408     0.0030     1.1200     0.9500    0    1
 259   100.0000   110.0000     0.2087     0.0420     1.1200     0.9500    0    1
 260   100.0000   110.0000     0.1069     0.0150     1.1200     0.9500    0    1
 261   100.0000   110.0000     0.0794     0.0200     1.1200     0.9500    0    1
 262   100.0000   110.0000     0.0020     0.0000     1.1200     0.9500    0    1
 263   100.0000   110.0000     0.0530     0.0100     1.1200     0.9500    0    1
 264   100.0000   110.0000     0.1222     0.0100     1.1200     0.9500    0    1
 265   100.0000   110.0000     0.1222     0.0100     1.1200     0.9500    0    1
 266   100.0000   110.0000     0.0834     0.0160     1.1200     0.9500    0    1
 267   100.0000   110.0000     0.1038     0.0300     1.1200     0.9500    0    1
 268   100.0000   110.0000     0.1487     0.0370     1.1200     0.9500    0    1
 269   100.0000   110.0000     0.1528     0.0400     1.1200     0.9500    0    1
 270   100.0000   110.0000     0.0367     0.0050     1.1200     0.9500    0    1
 271   100.0000   110.0000     0.0367     0.0050     1.1200     0.9500    0    1
 272   100.0000   110.0000     0.0926     0.0300     1.1200     0.9500    0    1
 273   100.0000   110.0000     0.1293     0.0370     1.1200     0.9500    0    1
 274   100.0000   110.0000     0.2567     0.0740     1.1200     0.9500    0    1
 275   100.0000   110.0000     0.2322     0.0670     1.1200     0.9500    0    1
 276   100.0000   110.0000     0.1426     0.0510     1.1200     0.9500    0    1
 277   100.0000   110.0000     0.5214     0.2040     1.1200     0.9500    0    1
 278   100.0000   110.0000     0.2495     0.0970     1.1200     0.9500    0    1
 279   100.0000   110.0000     0.2495     0.0970     1.1200     0.9500    0    1
 281   100.0000   110.0000     0.3066     0.1190     1.1200     0.9500    0    1
 282   100.0000   110.0000     0.1314     0.0510     1.1200     0.9500    0    1
 283   100.0000   110.0000     0.1702     0.0020     1.1200     0.9500    0    1
 284   100.0000   110.0000     0.0255     0.0050     1.1200     0.9500    0    1
 285   100.0000   110.0000     0.0814     0.0150     1.1200     0.9500    0    1
 286   100.0000   110.0000     0.2975     0.0410     1.1200     0.9500    0    1
 287   100.0000   110.0000     0.1222     0.0400     1.1200     0.9500    0    1
 288   100.0000   110.0000     0.1314     0.0380     1.1200     0.9500    0    1
 289   100.0000   110.0000     0.2128     0.0610     1.1200     0.9500    0    1
 290   100.0000   110.0000     0.1732     0.0300     1.1200     0.9500    0    1
 291   100.0000   110.0000     0.1681     0.0540     1.1200     0.9500    0    1
 292   100.0000   110.0000     0.1732     0.0500     1.1200     0.9500    0    1
 293   100.0000   110.0000     0.0722     0.0199     1.1200     0.9500    0    1
 294   100.0000   110.0000     0.1528     0.0300     1.1200     0.9500    0    1
 295   100.0000   110.0000     0.2128     0.0340     1.1200     0.9500    0    1
 296   100.0000   110.0000     0.1763     0.0510     1.1200     0.9500    0    1
 297   100.0000   110.0000     0.0853     0.0199     1.1200     0.9500    0    1
 298   100.0000   110.0000     0.0702     0.0160     1.1200     0.9500    0    1
 299   100.0000   110.0000     0.4806     0.1380     1.1200     0.9500    0    1
 300   100.0000   110.0000     0.2138     0.0900     1.1200     0.9500    0    1
 301   100.0000   110.0000     0.0622     0.0130     1.1200     0.9500    0    1
 302   100.0000   110.0000     0.0612     0.0130     1.1200     0.9500    0    1
 303   100.0000   110.0000     0.0632     0.0050     1.1200     0.9500    0    1
 304   100.0000   110.0000     0.1783     0.0510     1.1200     0.9500    0    1
 305   100.0000   110.0000     0.0753     0.0110     1.1200     0.9500    0    1
 306   100.0000   110.0000     0.2138     0.0400     1.1200     0.9500    0    1
 307   100.0000   110.0000     0.1771     0.0386     1.1200     0.9500    0    1
 308   100.0000   110.0000     0.0510     0.0000     1.1200     0.9500    0    1
 311   100.0000   110.0000     0.2956     0.0415     1.1200     0.9500    0    1
 313   100.0000   110.0000     0.0649     0.0015     1.1200     0.9500    0    1
 314   100.0000   110.0000     0.0719     0.0139     1.1200     0.9500    0    1
 315   100.0000   110.0000     0.0947     0.0000     1.1200     0.9500    0    1
 316   100.0000   110.0000     0.1620     0.0400     1.1200     0.9500    0    1
 317   100.0000   110.0000     0.0712     0.0200     1.1200     0.9500    0    1
 318   100.0000   110.0000     0.0612     0.0200     1.1200     0.9500    0    1
 319   100.0000   110.0000     0.0081     0.0030     1.1200     0.9500    0    1
 320   100.0000   110.0000     0.0659     0.0093     1.1200     0.9500    0    1
 323   100.0000   110.0000     0.0998     0.0180     1.1200     0.9500    0    1
 324   100.0000   110.0000     0.1120     0.0160     1.1200     0.9500    0    1
 325   100.0000   110.0000     0.1356     0.0030     1.1200     0.9500    0    1
 326   100.0000   110.0000     0.0662     0.0120     1.1200     0.9500    0    1
 327   100.0000   110.0000     0.0408     0.0010     1.1200     0.9500    0    1
 328   100.0000   110.0000     0.4583     0.2300     1.1200     0.9500    0    1
 329   100.0000   110.0000     0.4583     0.2300     1.1200     0.9500    0    1
 330   100.0000   110.0000     0.4836     0.2200     1.1200     0.9500    0    1
 331   100.0000   110.0000     0.4836     0.2200     1.1200     0.9500    0    1
 333   100.0000   110.0000     0.0947     0.0040     1.1200     0.9500    0    1
 334   100.0000   110.0000     0.1681     0.0070     1.1200     0.9500    0    1
 335   100.0000   110.0000     0.0408     0.0100     1.1200     0.9500    0    1
 337   100.0000   110.0000     0.1783     0.0550     1.1200     0.9500    0    1
 338   100.0000   110.0000     0.0236     0.0110     1.1200     0.9500    0    1
 339   100.0000   110.0000     0.0398     0.0170     1.1200     0.9500    0    1
 340   100.0000   110.0000     0.1120     0.0150     1.1200     0.9500    0    1
 341   100.0000   110.0000     0.1100     0.0010     1.1200     0.9500    0    1
 342   100.0000   110.0000     0.1630     0.0160     1.1200     0.9500    0    1
 343   100.0000   110.0000     0.0095     0.0047     1.1200     0.9500    0    1
 344   100.0000   110.0000     0.1324     0.0500     1.1200     0.9500    0    1
 345   100.0000   110.0000     0.1773     0.0400     1.1200     0.9500    0    1
 346   100.0000   110.0000     0.1834     0.1300     1.1200     0.9500    0    1
 347   100.0000   110.0000     0.0814     0.0450     1.1200     0.9500    0    1
 348   100.0000   110.0000     0.0204     0.0050     1.1200     0.9500    0    1
 349   100.0000   110.0000     0.2037     0.0450     1.1200     0.9500    0    1
...
];

%Shunt data: 0
Shunt.con = [...
];

%Line Data: 2896
Line.con = [...
  16    1 100.00000 220.00000  60.00000    0   0.00000   0.00155   0.01169   0.01820   0.00000   0.00000   1.60000   1.60000   1.60000   1.00000 
 355    1 100.00000 110.00000  60.00000    0   0.50000   0.00157   0.06612   0.00000   1.01000   0.00000   1.60000   1.60000   1.60000   1.00000 
  17    2 100.00000 220.00000  60.00000    0   0.00000   0.00155   0.01169   0.01820   0.00000   0.00000   1.60000   1.60000   1.60000   1.00000 
 354    2 100.00000 110.00000  60.00000    0   0.50000   0.00157   0.06612   0.00000   1.02200   0.00000   1.60000   1.60000   1.60000   1.00000 
  10    3 100.00000 220.00000  60.00000    0   0.00000   0.01068   0.07895   0.12260   0.00000   0.00000   2.74000   2.74000   2.74000   1.00000 
 219    3 100.00000 110.00000  60.00000    0   0.50000   0.00165   0.06736   0.00000   1.02700   0.00000   1.60000   1.60000   1.60000   1.00000 
 220    3 100.00000 110.00000  60.00000    0   0.50000   0.00165   0.06736   0.00000   0.99550   0.00000   1.60000   1.60000   1.60000   1.00000 
   7    4 100.00000 220.00000  60.00000    0   0.00000   0.01674   0.09711   0.14420   0.00000   0.00000   3.77000   3.77000   3.77000   1.00000 
  11    4 100.00000 220.00000  60.00000    0   0.00000   0.00293   0.01599   0.02478   0.00000   0.00000   3.35000   3.35000   3.35000   1.00000 
  14    4 100.00000 220.00000  60.00000    0   0.00000   0.00442   0.03223   0.04985   0.00000   0.00000   4.64000   4.64000   4.64000   1.00000 
  16    4 100.00000 220.00000  60.00000    0   0.00000   0.00888   0.06665   0.08896   0.00000   0.00000   3.77000   3.77000   3.77000   1.00000 
  22    4 100.00000 220.00000  60.00000    0   0.00000   0.00783   0.04300   0.04962   0.00000   0.00000   3.50000   3.50000   3.50000   1.00000 
 245    4 100.00000 110.00000  60.00000    0   0.50000   0.00165   0.06901   0.00000   1.05900   0.00000   1.60000   1.60000   1.60000   1.00000 
 246    4 100.00000 110.00000  60.00000    0   0.50000   0.00165   0.06901   0.00000   1.04500   0.00000   1.60000   1.60000   1.60000   1.00000 
   5    6 100.00000 220.00000  60.00000    0   0.55000   0.00064   0.03050   0.00000   1.04400  -0.60000   4.00000   4.00000   4.00000   1.00000 
   7    5 100.00000 220.00000  60.00000    0   0.00000   0.00525   0.03988   0.06195   0.00000   0.00000   3.81000   3.81000   3.81000   1.00000 
  10    5 100.00000 220.00000  60.00000    0   0.00000   0.01459   0.11220   0.16550   0.00000   0.00000   3.81000   3.81000   3.81000   1.00000 
 309    5 100.00000 110.00000  60.00000    0   0.50000   0.00165   0.06860   0.00000   1.06500   0.00000   1.60000   1.60000   1.60000   1.00000 
 309    5 100.00000 110.00000  60.00000    0   0.50000   0.00165   0.06860   0.00000   1.05200   0.00000   1.60000   1.60000   1.60000   1.00000 
   6    8 100.00000 400.00000  60.00000    0   0.00000   0.00112   0.01329   0.34130   0.00000   0.00000  13.16000  13.16000  13.16000   1.00000 
   6    9 100.00000 400.00000  60.00000    0   0.00000   0.00299   0.03675   0.91840   0.00000   0.00000  14.27000  14.27000  14.27000   1.00000 
  15    6 100.00000 400.00000  60.00000    0   0.00000   0.00298   0.03417   0.93500   0.00000   0.00000  14.27000  14.27000  14.27000   1.00000 
  31    6 100.00000 400.00000  60.00000    0   0.00000   0.00150   0.01506   0.40320   0.00000   0.00000  13.85000  13.85000  13.85000   1.00000 
 310    6 100.00000 110.00000  60.00000    0   0.27500   0.00150   0.06188   0.00000   1.06100   0.00000   2.50000   2.50000   2.50000   1.00000 
  12    7 100.00000 220.00000  60.00000    0   0.00000   0.01211   0.08742   0.14020   0.00000   0.00000   3.81000   3.81000   3.81000   1.00000 
  13    7 100.00000 220.00000  60.00000    0   0.00000   0.00205   0.01326   0.02243   0.00000   0.00000   3.35000   3.35000   3.35000   1.00000 
  19    7 100.00000 220.00000  60.00000    0   0.00000   0.00570   0.04070   0.06021   0.00000   0.00000   3.23000   3.23000   3.23000   1.00000 
  21    7 100.00000 220.00000  60.00000    0   0.00000   0.00093   0.00651   0.01113   0.00000   0.00000   1.60000   1.60000   1.60000   1.00000 
  29    7 100.00000 220.00000  60.00000    0   0.00000   0.01269   0.07498   0.13020   0.00000   0.00000   3.62000   3.62000   3.62000   1.00000 
 321    7 100.00000 110.00000  60.00000    0   0.50000   0.00041   0.03368   0.00000   1.03200   0.00000   2.50000   2.50000   2.50000   1.00000 
 322    7 100.00000 110.00000  60.00000    0   0.50000   0.00165   0.06775   0.00000   1.05700   0.00000   1.60000   1.60000   1.60000   1.00000 
   8   18 100.00000 400.00000  60.00000    0   0.00000   0.00336   0.03977   1.02200   0.00000   0.00000  13.16000  13.16000  13.16000   1.00000 
 332    9 100.00000 110.00000  60.00000    0   0.27500   0.00087   0.05244  -0.02144   1.07800   0.00000   3.30000   3.30000   3.30000   1.00000 
 171   10 100.00000 220.00000  60.00000    0   0.00000   0.01409   0.10410   0.15970   0.00000   0.00000   4.64000   4.64000   4.64000   1.00000 
 346   10 100.00000 110.00000  60.00000    0   0.50000   0.00124   0.06839   0.00000   1.00500   0.00000   1.60000   1.60000   1.60000   1.00000 
 347   10 100.00000 110.00000  60.00000    0   0.50000   0.00124   0.06839   0.00000   1.02400   0.00000   1.60000   1.60000   1.60000   1.00000 
  16   11 100.00000 220.00000  60.00000    0   0.00000   0.00570   0.03952   0.07553   0.00000   0.00000   4.64000   4.64000   4.64000   1.00000 
  17   11 100.00000 220.00000  60.00000    0   0.00000   0.00570   0.03952   0.07553   0.00000   0.00000   4.64000   4.64000   4.64000   1.00000 
 111   11 100.00000 220.00000  60.00000    0   0.00000   0.01068   0.06196   0.09496   0.00000   0.00000   3.94000   3.94000   3.94000   1.00000 
 352   11 100.00000 110.00000  60.00000    0   0.50000   0.00165   0.06901   0.00000   1.04100   0.00000   1.60000   1.60000   1.60000   1.00000 
 353   11 100.00000 110.00000  60.00000    0   0.50000   0.00165   0.06901   0.00000   1.05600   0.00000   1.60000   1.60000   1.60000   1.00000 
 140   12 100.00000 220.00000  60.00000    0   0.00000   0.01465   0.10590   0.17090   0.00000   0.00000   4.64000   4.64000   4.64000   1.00000 
 359   12 100.00000 110.00000  60.00000    0   0.50000   0.00155   0.06612   0.00000   1.04000   0.00000   1.60000   1.60000   1.60000   1.00000 
 360   12 100.00000 110.00000  60.00000    0   0.50000   0.00157   0.06612   0.00000   1.05900   0.00000   1.60000   1.60000   1.60000   1.00000 
  29   13 100.00000 220.00000  60.00000    0   0.00000   0.01345   0.08114   0.14110   0.00000   0.00000   3.39000   3.39000   3.39000   1.00000 
 365   13 100.00000 110.00000  60.00000    0   0.50000   0.00165   0.06901   0.00000   1.03100   0.00000   1.60000   1.60000   1.60000   1.00000 
 366   13 100.00000 110.00000  60.00000    0   0.50000   0.00165   0.06901   0.00000   0.98720   0.00000   1.60000   1.60000   1.60000   1.00000 
  17   14 100.00000 220.00000  60.00000    0   0.00000   0.00384   0.02853   0.04588   0.00000   0.00000   4.64000   4.64000   4.64000   1.00000 
 367   14 100.00000 110.00000  60.00000    0   0.50000   0.00157   0.06798   0.00000   1.06600   0.00000   1.60000   1.60000   1.60000   1.00000 
 368   14 100.00000 110.00000  60.00000    0   0.50000   0.00165   0.06901   0.00000   1.07800   0.00000   1.60000   1.60000   1.60000   1.00000 
  18   15 100.00000 400.00000  60.00000    0   0.00000   0.00358   0.04262   1.09400   0.00000   0.00000  16.62000  16.62000  16.62000   1.00000 
  15  165 100.00000 400.00000  60.00000    0   0.00000   0.00207   0.02474   0.66400   0.00000   0.00000   8.31000   8.31000   8.31000   1.00000 
 374   15 100.00000 110.00000  60.00000    0   0.27500   0.00150   0.06188   0.00000   1.15000   0.00000   2.50000   2.50000   2.50000   1.00000 
  16   18 100.00000 220.00000  60.00000    0   0.55000   0.00036   0.02519   0.00000   1.06100   0.00000   5.00000   5.00000   5.00000   1.00000 
  16   73 100.00000 220.00000  60.00000    0   0.00000   0.00909   0.06240   0.11140   0.00000   0.00000   4.64000   4.64000   4.64000   1.00000 
  17   18 100.00000 220.00000  60.00000    0   0.55000   0.00036   0.02519   0.00000   1.06100   0.00000   5.00000   5.00000   5.00000   1.00000 
  17   74 100.00000 220.00000  60.00000    0   0.00000   0.00868   0.06405   0.09699   0.00000   0.00000   4.64000   4.64000   4.64000   1.00000 
  20   18 100.00000 400.00000  60.00000    0   0.00000   0.00063   0.00749   0.39230   0.00000   0.00000  14.27000  14.27000  14.27000   1.00000 
  75   18 100.00000 400.00000  60.00000    0   0.00000   0.00219   0.02369   0.59580   0.00000   0.00000  14.34000  14.34000  14.34000   1.00000 
  18   76 100.00000 400.00000  60.00000    0   0.00000   0.00137   0.01625   0.41180   0.00000   0.00000  16.62000  16.62000  16.62000   1.00000 
  18  101 100.00000 400.00000  60.00000    0   0.00000   0.00231   0.02769   0.70140   0.00000   0.00000  16.62000  16.62000  16.62000   1.00000 
 124   19 100.00000 220.00000  60.00000    0   0.00000   0.01696   0.12370   0.19700   0.00000   0.00000   4.64000   4.64000   4.64000   1.00000 
 425   19 100.00000 110.00000  60.00000    0   0.50000   0.00165   0.06818   0.00000   1.02400   0.00000   1.60000   1.60000   1.60000   1.00000 
  67   20 100.00000 400.00000  60.00000    0   0.00000   0.00331   0.03425   0.85890   0.00000   0.00000   8.31000   8.31000   8.31000   1.00000 
 447   20 100.00000 110.00000  60.00000    0   0.27500   0.00137   0.06119  -0.01504   1.08000   0.00000   2.50000   2.50000   2.50000   1.00000 
 448   20 100.00000 110.00000  60.00000    0   0.27500   0.00137   0.06119  -0.01504   1.09200   0.00000   2.50000   2.50000   2.50000   1.00000 
 502   21 100.00000 110.00000  60.00000    0   0.50000   0.00165   0.07107   0.00000   0.99220   0.00000   1.60000   1.60000   1.60000   1.00000 
 112   22 100.00000 220.00000  60.00000    0   0.00000   0.00465   0.02618   0.02962   0.00000   0.00000   3.62000   3.62000   3.62000   1.00000 
 526   22 100.00000 110.00000  60.00000    0   0.50000   0.00165   0.06901   0.00000   1.06900   0.00000   1.60000   1.60000   1.60000   1.00000 
 527   22 100.00000 110.00000  60.00000    0   0.50000   0.00165   0.06901   0.00000   1.04200   0.00000   1.60000   1.60000   1.60000   1.00000 
  37   23 100.00000 220.00000  60.00000    0   0.00000   0.01163   0.07031   0.10580   0.00000   0.00000   3.94000   3.94000   3.94000   1.00000 
  46   23 100.00000 220.00000  60.00000    0   0.00000   0.00837   0.04868   0.07348   0.00000   0.00000   4.57000   4.57000   4.57000   1.00000 
  53   23 100.00000 220.00000  60.00000    0   0.00000   0.01122   0.06558   0.09835   0.00000   0.00000   2.74000   2.74000   2.74000   1.00000 
 540   23 100.00000 110.00000  60.00000    0   0.50000   0.00140   0.06680   0.00000   1.01800   0.00000   1.60000   1.60000   1.60000   1.00000 
  54   24 100.00000 220.00000  60.00000    0   0.00000   0.00769   0.05727   0.08789   0.00000   0.00000   1.60000   1.60000   1.60000   1.00000 
 545   24 100.00000 110.00000  60.00000    0   0.50000   0.00151   0.06715   0.00000   1.01600   0.00000   1.60000   1.60000   1.60000   1.00000 
  41   25 100.00000 220.00000  60.00000    0   0.00000   0.00556   0.04145   0.06360   0.00000   0.00000   2.74000   2.74000   2.74000   1.00000 
  53   25 100.00000 220.00000  60.00000    0   0.00000   0.00452   0.03368   0.05169   0.00000   0.00000   4.64000   4.64000   4.64000   1.00000 
...